powerflow/autotest/test_regulator_manual_YY_B_NR.glm
// $id$
//	Copyright (C) 2008 Battelle Memorial Institute

// 4 node system with a balanced load and a regulator
// being controlled manually, which each phase handled
// individually.  Check to make sure voltages are being
// regulated correctly with both a Type A & B regulator.


clock {
	timezone EST+5EDT;
	timestamp '2000-01-01 3:00:00';
}

module powerflow {
	solver_method NR;
};
module assert;
module tape;

//#define stylesheet="C:\Documents and Settings\d3x289\Desktop\GLD_8_7\trunk\VS2005\gridlabd-2_0";
#set relax_naming_rules=1

object overhead_line_conductor:100 {
	geometric_mean_radius 0.0244;
	resistance 0.306;
}

object overhead_line_conductor:101 {
	geometric_mean_radius 0.00814;
	resistance 0.592;
}

object line_spacing:200 {
	distance_AB 2.5;
	distance_BC 4.5;
	distance_AC 7.0;
	distance_AN 5.656854;
	distance_BN 4.272002;
	distance_CN 5.0;
}

object line_configuration:300 {
	conductor_A overhead_line_conductor:100;
	conductor_B overhead_line_conductor:100;
	conductor_C overhead_line_conductor:100;
	conductor_N overhead_line_conductor:101;
	spacing line_spacing:200;
}

object regulator_configuration {
	connect_type WYE_WYE;
	name manual_regulator;
	raise_taps 16;
	lower_taps 16;
	regulation 0.1;
	Type B;
	Control MANUAL;
}

object node {
	phases ABCN;
	name FeederNode;
	bustype SWING;
	voltage_A +7199.558+0.000j;
	voltage_B -3599.779-6235.000j;
	voltage_C -3599.779+6235.000j;
	nominal_voltage 7200;
}
	
object regulator {
	name Regulator;
	phases ABCN;
	from FeederNode;
	to TopNode;
	configuration manual_regulator;
	tap_A 16;
	tap_B -16;
	tap_C 1;
	object player {
		file ../regulator_manual_YY_tap_A.player;
		property tap_A;
	};
	object player {
		file ../regulator_manual_YY_tap_B.player;
		property tap_B;
	};
	object player {
		file ../regulator_manual_YY_tap_C.player;
		property tap_C;
	};
	object recorder {
		file regulator_manual_output.csv;
		property tap_A,tap_B,tap_C;
		interval 3600;
		limit 33;
	};
}

object node {
	phases "ABCN";
	name TopNode;
	voltage_A +7199.558+0.000j;
	voltage_B -3599.779-6235.000j;
	voltage_C -3599.779+6235.000j;
	nominal_voltage 7200;
	object complex_assert {
		target "voltage_A";
		within 0.1;
		object player {
			file ../regulator_manual_YY_assert_A_TypeB.player;
			property value;
		};
	};
	object complex_assert {
		target "voltage_B";
		within 0.1;
		object player {
			file ../regulator_manual_YY_assert_B_TypeB.player;
			property value;
		};
	};
	object complex_assert {
		target "voltage_C";
		within 0.1;
		object player {
			file ../regulator_manual_YY_assert_C_TypeB.player;
			property value;
		};
	};
	object recorder {
		file regulator_test.csv;
		interval 3601;
		limit 33;
		property voltage_A,voltage_B,voltage_C;
	};
}

object overhead_line {
	phases "ABCN";
	from TopNode;
	to MiddleNode;
	length 2000;
	configuration line_configuration:300;
}

object node {
	phases "ABCN";
	nominal_voltage 7200;
	voltage_A +7199.558+0.000j;
	voltage_B -3599.779-6235.000j;
	voltage_C -3599.779+6235.000j;
	name MiddleNode;
}

object overhead_line {
	phases "ABCN";
	from MiddleNode;
	to BottomLoad;
	length 2500;
	configuration line_configuration:300;
}

object load {
	phases "ABCN";
	name BottomLoad;
	constant_power_A +5000.000+120.0j;
	constant_power_B +5000.000+120.0j;
	constant_power_C +5000.000+120.0j;
	nominal_voltage 7200;
}
